/*--------------------------------*- C++ -*----------------------------------*\
| =========                 |                                                 |
| \\      /  F ield         | OpenFOAM: The Open Source CFD Toolbox           |
|  \\    /   O peration     | Version:  3.0.x                                 |
|   \\  /    A nd           | Web:      www.OpenFOAM.org                      |
|    \\/     M anipulation  |                                                 |
\*---------------------------------------------------------------------------*/
FoamFile
{
    version     2.0;
    format      ascii;
    class       dictionary;
    object      blockMeshDict;
}
// * * * * * * * * * * * * * * * * * * * * * * * * * * * * * * * * * * * * * //

convertToMeters 1;

vertices
(
    ( 0  0  0)
    (20  0  0)
    ( 0 10  0)
    (20 10  0)
    ( 0  0 20)
    (20  0 20)
    ( 0 10 20)
    (20 10 20)
);

blocks
(
    hex (0 1 3 2 4 5 7 6) (150 75 150) simpleGrading (1 1 1)
);

edges
(
);

boundary
(
    bottomWall
    {
        type            wall;
        faces           ((0 1 5 4));
    }
    topWall
    {
        type            slip;
        faces           ((2 6 7 3));
    }

    sides1_half0
    {
        type            cyclic;
        neighbourPatch  sides1_half1;
        faces           ((0 2 3 1));
    }
    sides1_half1
    {
        type            cyclic;
        neighbourPatch  sides1_half0;
        faces           ((4 5 7 6));
    }

    inout1_half0
    {
        type            cyclic;
        neighbourPatch  inout1_half1;
        faces           ((0 4 6 2));
    }
    inout1_half1
    {
        type            cyclic;
        neighbourPatch  inout1_half0;
        faces           ((1 3 7 5));
    }
);

mergePatchPairs
(
);

// ************************************************************************* //
