/*--------------------------------*- C++ -*----------------------------------*\
| =========                 |                                                 |
| \\      /  F ield         | OpenFOAM: The Open Source CFD Toolbox           |
|  \\    /   O peration     | Version:  3.0.x                                 |
|   \\  /    A nd           | Web:      www.OpenFOAM.org                      |
|    \\/     M anipulation  |                                                 |
\*---------------------------------------------------------------------------*/
FoamFile
{
    version     2.0;
    format      ascii;
    class       dictionary;
    location    "system";
    object      mapFieldsDict;
}
// * * * * * * * * * * * * * * * * * * * * * * * * * * * * * * * * * * * * * //

patchMap        
(
    bottomWall      bottomWall
    topWall         topWall
    sides1_half0    sides1_half0
    sides1_half1    sides1_half1
    inout1_half0    inout1_half0
    inout1_half1    inout1_half1
);

cuttingPatches  ( );


// ************************************************************************* //
